Version 4
SHEET 1 1432 680
WIRE 592 -192 592 -224
WIRE -80 -144 -80 -208
WIRE -80 -144 -128 -144
WIRE 592 -112 -128 -112
WIRE 400 -80 -128 -80
WIRE 400 -64 400 -80
WIRE 208 -48 -128 -48
WIRE 1168 -32 1088 -32
WIRE 208 -16 -128 -16
WIRE 1168 0 1088 0
WIRE 208 16 -128 16
WIRE 1168 32 1088 32
WIRE 400 48 400 16
WIRE 400 48 -128 48
WIRE 1168 64 1088 64
WIRE 400 80 400 48
WIRE 400 80 -128 80
WIRE 704 96 624 96
WIRE 1168 96 704 96
WIRE 400 112 400 80
WIRE 400 112 -128 112
WIRE 832 128 768 128
WIRE 1168 128 832 128
WIRE 400 144 400 112
WIRE 400 144 -128 144
WIRE 464 144 400 144
WIRE 944 160 880 160
WIRE 1168 160 944 160
WIRE 208 176 -128 176
WIRE 1088 192 992 192
WIRE 1168 192 1088 192
WIRE 208 208 -128 208
WIRE 832 208 832 128
WIRE 944 208 944 160
WIRE 208 240 -128 240
WIRE 208 272 -128 272
WIRE 768 288 768 128
WIRE 768 288 688 288
WIRE 528 304 -128 304
WIRE 528 320 528 304
WIRE -96 336 -128 336
WIRE 880 368 880 160
WIRE 880 368 720 368
WIRE -96 400 -96 336
WIRE 992 464 992 192
WIRE 992 464 784 464
WIRE 528 496 528 400
FLAG 528 496 0
FLAG -96 400 0
FLAG -80 -208 0
FLAG 464 144 0
FLAG 208 176 PB0
FLAG 208 208 PB1
FLAG 208 240 PB2
FLAG 208 272 PB3
FLAG 208 16 PC10
FLAG 208 -48 PC12
FLAG 208 -16 PC11
FLAG 592 -224 0
FLAG 1088 -32 PB4
FLAG 1088 0 PB5
FLAG 1088 32 PB6
FLAG 1088 64 PB7
FLAG 624 96 PB8
FLAG 688 288 PB9
FLAG 720 368 PB10
FLAG 784 464 PB11
FLAG 528 304 3.3V
FLAG 704 176 3.3V
FLAG 832 288 3.3V
FLAG 944 288 3.3V
FLAG 1088 272 3.3V
SYMBOL LCD -128 -160 R0
SYMATTR InstName L1
SYMBOL voltage 528 304 R0
WINDOW 123 0 0 Left 0
WINDOW 39 0 0 Left 0
SYMATTR InstName V1
SYMATTR Value 3.3
SYMBOL res 416 32 R180
WINDOW 0 36 76 Left 2
WINDOW 3 36 40 Left 2
SYMATTR InstName R1
SYMATTR Value 220k
SYMBOL voltage 592 -96 R180
WINDOW 123 0 0 Left 0
WINDOW 39 0 0 Left 0
SYMATTR InstName V2
SYMATTR Value 5
SYMBOL Keypad 1120 96 R0
SYMATTR InstName X1
SYMBOL res 1072 176 R0
SYMATTR InstName R2
SYMATTR Value 2.2k
SYMBOL res 928 192 R0
SYMATTR InstName R3
SYMATTR Value 2.2k
SYMBOL res 816 192 R0
SYMATTR InstName R4
SYMATTR Value 2.2k
SYMBOL res 688 80 R0
SYMATTR InstName R5
SYMATTR Value 2.2k
TEXT -240 -192 Left 2 ;LCD
TEXT 1264 64 Left 2 ;Keypad
TEXT 1176 272 Left 2 ;PB4-PB7
TEXT 1176 304 Left 2 ;Output
TEXT 1176 376 Left 2 ;PB8-PB11
TEXT 1176 408 Left 2 ;Input
TEXT 1176 336 Left 2 ;Open-Drain
