Version 4
SHEET 1 1752 680
WIRE 496 -1024 416 -1024
WIRE 576 -1024 496 -1024
WIRE 672 -1024 672 -1088
WIRE 672 -1024 576 -1024
WIRE 896 -992 752 -992
WIRE 672 -960 672 -1024
WIRE 896 -960 672 -960
WIRE 576 -928 576 -944
WIRE 576 -928 560 -928
WIRE 896 -928 576 -928
WIRE 496 -896 496 -944
WIRE 496 -896 480 -896
WIRE 896 -896 496 -896
WIRE 416 -864 416 -1024
WIRE 896 -864 416 -864
WIRE 896 -832 800 -832
WIRE 896 -768 832 -768
WIRE 592 -192 592 -224
WIRE -80 -144 -80 -208
WIRE -80 -144 -128 -144
WIRE 528 -112 -128 -112
WIRE 592 -112 528 -112
WIRE 400 -80 -128 -80
WIRE 400 -64 400 -80
WIRE 208 -48 -128 -48
WIRE 1488 -32 1408 -32
WIRE 208 -16 -128 -16
WIRE 1488 0 1408 0
WIRE 208 16 -128 16
WIRE 1488 32 1408 32
WIRE 400 48 400 16
WIRE 400 48 -128 48
WIRE 1488 64 1408 64
WIRE 400 80 400 48
WIRE 400 80 -128 80
WIRE 1024 96 944 96
WIRE 1488 96 1024 96
WIRE 400 112 400 80
WIRE 400 112 -128 112
WIRE 1152 128 1088 128
WIRE 1488 128 1152 128
WIRE 400 144 400 112
WIRE 400 144 -128 144
WIRE 464 144 400 144
WIRE 1264 160 1200 160
WIRE 1488 160 1264 160
WIRE 208 176 -128 176
WIRE 1408 192 1312 192
WIRE 1488 192 1408 192
WIRE 208 208 -128 208
WIRE 1152 208 1152 128
WIRE 1264 208 1264 160
WIRE 208 240 -128 240
WIRE 208 272 -128 272
WIRE 1088 288 1088 128
WIRE 1088 288 1008 288
WIRE 384 304 -128 304
WIRE 528 304 528 -112
WIRE 528 304 464 304
WIRE -96 336 -128 336
WIRE 1200 368 1200 160
WIRE 1200 368 1040 368
WIRE -96 400 -96 336
WIRE 1312 464 1312 192
WIRE 1312 464 1104 464
FLAG -96 400 0
FLAG -80 -208 0
FLAG 464 144 0
FLAG 208 176 PB0
FLAG 208 208 PB1
FLAG 208 240 PB2
FLAG 208 272 PB3
FLAG 208 16 PC10
FLAG 208 -48 PC12
FLAG 208 -16 PC11
FLAG 592 -224 0
FLAG 1408 -32 PB4
FLAG 1408 0 PB5
FLAG 1408 32 PB6
FLAG 1408 64 PB7
FLAG 944 96 PB8
FLAG 1008 288 PB9
FLAG 1040 368 PB10
FLAG 1104 464 PB11
FLAG 1024 176 3.3V
FLAG 1152 288 3.3V
FLAG 1264 288 3.3V
FLAG 1408 272 3.3V
FLAG 752 -992 0
FLAG 672 -1168 0
FLAG 560 -928 PC1
FLAG 480 -896 PC0
FLAG 800 -832 PC3
FLAG 768 -768 0
SYMBOL LCD -128 -160 R0
SYMATTR InstName L1
SYMBOL res 416 32 R180
WINDOW 0 36 76 Left 2
WINDOW 3 36 40 Left 2
SYMATTR InstName R1
SYMATTR Value 2.2k
SYMBOL voltage 592 -96 R180
WINDOW 123 0 0 Left 0
WINDOW 39 0 0 Left 0
SYMATTR InstName V2
SYMATTR Value 5
SYMBOL Keypad 1440 96 R0
SYMATTR InstName X1
SYMBOL res 1392 176 R0
SYMATTR InstName R2
SYMATTR Value 2.2k
SYMBOL res 1248 192 R0
SYMATTR InstName R3
SYMATTR Value 2.2k
SYMBOL res 1136 192 R0
SYMATTR InstName R4
SYMATTR Value 2.2k
SYMBOL res 1008 80 R0
SYMATTR InstName R5
SYMATTR Value 2.2k
SYMBOL Si4703 896 -992 R0
SYMATTR InstName X2
SYMBOL voltage 672 -1072 R180
WINDOW 0 24 96 Left 2
WINDOW 3 24 16 Left 2
WINDOW 123 0 0 Left 0
WINDOW 39 0 0 Left 0
SYMATTR InstName V3
SYMATTR Value 3.3
SYMBOL res 560 -1040 R0
SYMATTR InstName R6
SYMATTR Value 4.7k
SYMBOL res 480 -1040 R0
SYMATTR InstName R7
SYMATTR Value 4.7k
SYMBOL LED 832 -784 R90
WINDOW 0 0 32 VBottom 2
WINDOW 3 72 32 VTop 2
SYMATTR InstName LED
SYMBOL res 480 288 R90
WINDOW 0 0 56 VBottom 2
WINDOW 3 32 56 VTop 2
SYMATTR InstName R8
SYMATTR Value 470
TEXT -240 -192 Left 2 ;LCD
TEXT 1584 64 Left 2 ;Keypad
TEXT 1496 272 Left 2 ;PB4-PB7
TEXT 1496 304 Left 2 ;Output
TEXT 1496 376 Left 2 ;PB8-PB11
TEXT 1496 408 Left 2 ;Input
TEXT 1496 336 Left 2 ;Open-Drain
TEXT 856 -696 Left 2 ;PC1 and PC0 - Alternate Function (I2C)\nPC3 Output
